data_image0
_chemical_formula_structural       C4HCHCH2C4HCHCH2C4HCHCH2B3O5B3OC4HCHCH2C4HCHCH2C4HCHCH2B3O5B3O
_chemical_formula_sum              "C36 H24 B12 O12"
_cell_length_a       14.984
_cell_length_b       14.9823
_cell_length_c       8
_cell_angle_alpha    90
_cell_angle_beta     90
_cell_angle_gamma    60

_space_group_name_H-M_alt    "P 1"
_space_group_IT_number       1

loop_
  _space_group_symop_operation_xyz
  'x, y, z'

loop_
  _atom_site_type_symbol
  _atom_site_label
  _atom_site_symmetry_multiplicity
  _atom_site_fract_x
  _atom_site_fract_y
  _atom_site_fract_z
  _atom_site_occupancy
  C   C1        1.0  0.82811  0.62964  0.01688  1.0000
  C   C2        1.0  0.71976  0.68503  0.02038  1.0000
  C   C3        1.0  0.88029  0.68582  0.01575  1.0000
  C   C4        1.0  0.66536  0.79276  0.02225  1.0000
  H   H1        1.0  0.68156  0.63861  0.02125  1.0000
  C   C5        1.0  0.82592  0.79351  0.01788  1.0000
  H   H2        1.0  0.96493  0.64005  0.01288  1.0000
  C   C6        1.0  0.71761  0.84894  0.02063  1.0000
  H   H3        1.0  0.58069  0.83801  0.02488  1.0000
  H   H4        1.0  0.86358  0.84042  0.01675  1.0000
  C   C7        1.0  0.83011  0.29301  0.01550  1.0000
  C   C8        1.0  0.88290  0.18461  0.01388  1.0000
  C   C9        1.0  0.72179  0.34540  0.01913  1.0000
  C   C10       1.0  0.82932  0.13048  0.01588  1.0000
  H   H5        1.0  0.96748  0.14624  0.01075  1.0000
  C   C11       1.0  0.66824  0.29128  0.02100  1.0000
  H   H6        1.0  0.68325  0.43003  0.02013  1.0000
  C   C12       1.0  0.72092  0.18293  0.01913  1.0000
  H   H7        1.0  0.86832  0.04578  0.01450  1.0000
  H   H8        1.0  0.58365  0.32931  0.02375  1.0000
  C   C13       1.0  0.16452  0.29518  0.00500  1.0000
  C   C14       1.0  0.22009  0.34802  0.00537  1.0000
  C   C15       1.0  0.22060  0.18682  0.00450  1.0000
  C   C16       1.0  0.32780  0.29453  0.00738  1.0000
  H   H9        1.0  0.17392  0.43269  0.00387  1.0000
  C   C17       1.0  0.32828  0.13335  0.00650  1.0000
  H   H10       1.0  0.17478  0.14797  0.00237  1.0000
  C   C18       1.0  0.38385  0.18611  0.00900  1.0000
  H   H11       1.0  0.37320  0.33380  0.00825  1.0000
  H   H12       1.0  0.37483  0.04875  0.00688  1.0000
  B   B1        1.0  0.04885  0.35252  0.00738  1.0000
  B   B2        1.0  0.88640  0.51395  0.01425  1.0000
  B   B3        1.0  0.88746  0.35135  0.01337  1.0000
  O   O1        1.0  0.99366  0.45980  0.01000  1.0000
  O   O2        1.0  0.99472  0.29936  0.00925  1.0000
  O   O3        1.0  0.83439  0.45867  0.01575  1.0000
  O   O4        1.0  0.71407  0.01845  0.02213  1.0000
  O   O5        1.0  0.55333  0.02030  0.01575  1.0000
  B   B4        1.0  0.66056  0.96464  0.01988  1.0000
  B   B5        1.0  0.49951  0.12759  0.01312  1.0000
  B   B6        1.0  0.66245  0.12573  0.01900  1.0000
  O   O6        1.0  0.55516  0.17922  0.01500  1.0000
  C   C19       1.0  0.82811  0.62964  0.51687  1.0000
  C   C20       1.0  0.71976  0.68503  0.52038  1.0000
  C   C21       1.0  0.88029  0.68582  0.51575  1.0000
  C   C22       1.0  0.66536  0.79276  0.52225  1.0000
  H   H13       1.0  0.68156  0.63861  0.52125  1.0000
  C   C23       1.0  0.82592  0.79351  0.51787  1.0000
  H   H14       1.0  0.96493  0.64005  0.51287  1.0000
  C   C24       1.0  0.71761  0.84894  0.52063  1.0000
  H   H15       1.0  0.58069  0.83801  0.52487  1.0000
  H   H16       1.0  0.86358  0.84042  0.51675  1.0000
  C   C25       1.0  0.83011  0.29301  0.51550  1.0000
  C   C26       1.0  0.88290  0.18461  0.51387  1.0000
  C   C27       1.0  0.72179  0.34540  0.51913  1.0000
  C   C28       1.0  0.82932  0.13048  0.51587  1.0000
  H   H17       1.0  0.96748  0.14624  0.51075  1.0000
  C   C29       1.0  0.66824  0.29128  0.52100  1.0000
  H   H18       1.0  0.68325  0.43003  0.52012  1.0000
  C   C30       1.0  0.72092  0.18293  0.51913  1.0000
  H   H19       1.0  0.86832  0.04578  0.51450  1.0000
  H   H20       1.0  0.58365  0.32931  0.52375  1.0000
  C   C31       1.0  0.16452  0.29518  0.50500  1.0000
  C   C32       1.0  0.22009  0.34802  0.50538  1.0000
  C   C33       1.0  0.22060  0.18682  0.50450  1.0000
  C   C34       1.0  0.32780  0.29453  0.50738  1.0000
  H   H21       1.0  0.17392  0.43269  0.50387  1.0000
  C   C35       1.0  0.32828  0.13335  0.50650  1.0000
  H   H22       1.0  0.17478  0.14797  0.50238  1.0000
  C   C36       1.0  0.38385  0.18611  0.50900  1.0000
  H   H23       1.0  0.37320  0.33380  0.50825  1.0000
  H   H24       1.0  0.37483  0.04875  0.50687  1.0000
  B   B7        1.0  0.04885  0.35252  0.50738  1.0000
  B   B8        1.0  0.88640  0.51395  0.51425  1.0000
  B   B9        1.0  0.88746  0.35135  0.51338  1.0000
  O   O7        1.0  0.99366  0.45980  0.51000  1.0000
  O   O8        1.0  0.99472  0.29936  0.50925  1.0000
  O   O9        1.0  0.83439  0.45867  0.51575  1.0000
  O   O10       1.0  0.71407  0.01845  0.52212  1.0000
  O   O11       1.0  0.55333  0.02030  0.51575  1.0000
  B   B10       1.0  0.66056  0.96464  0.51987  1.0000
  B   B11       1.0  0.49951  0.12759  0.51313  1.0000
  B   B12       1.0  0.66245  0.12573  0.51900  1.0000
  O   O12       1.0  0.55516  0.17922  0.51500  1.0000
